02 P-IGEN model/Electricity_Network.m
#Case file for GB electricity network

function mpc = GB_29bus

mpc.version = '2';
mpc.baseMVA = 100;

%% GBreducednetwork Case in Matpower Format
%It is reduced model of GB network.
%Network consists of 29 buses, 99 transmission lines and 66 generators

%% Bus Data

%	bus_i	type	Pd	Qd	Gs	Bs	area	Vm	Va	baseKV	zone	Vmax	Vmin
mpc.bus = [
    1	2	385.87	87.02	0	0	1	1	0	275	1	1.01	0.99;
    2	2	440.56	147.98	0	0	1	1	0	275	1	1.01	0.99;
    3	2	460.23	137.84	0	-10	1	1	0	132	1	1.01	0.99;
    4	2	1018.24	474.48	0	150	1	1	0	275	1	1.01	0.99;
    5	2	391.78	34.20	0	0	1	1	0	400	1	1.01	0.99;	    % Western HVDC Link 1 GB-GB
    6	2	999.40	195.30	0	450	1	1	0	400	1	1.01	0.99;	 %IC ireland ON***
    7	2	584.73	38.20	0	-300	1	1	0	400	1	1.01	0.99;
    8	2	91.88	22.87	0	0	1	1	0	400	1	1.01	0.99;
    9	2	104.86	132.38	0	675	1	1	0	400	1	1.01	0.99;
    10	2	2116.46	843.62	0	450	1	1	0	400	1	1.01	0.99;
    11	2	2678.65	1256.93	0	0	1	1	0	400	1	1.01	0.99;	     % Western HVDC Link 2 GB-GB
    12	2	1095.77	348.04	0	-222	1	1	0	400	1	1.01	0.99;
    13	2	2341.48	1144.98	0	450	1	1	0	400	1	1.01	0.99;
    14	2	1492.09	470.82	0	-200	1	1	0	400	1	1.01	0.99;
    15	2	2148.75	1188.21	0	0	1	1	0	400	1	1.01	0.99;
    16	3	1347.90	2435.70	0	25	1	1	0	400	1	1.01	0.99;
    17	2	887.53	725.42	0	700	1	1	0	400	1	1.01	0.99;
    18	2	5047.33	2673.71	0	2033	1	1	0	400	1	1.01	0.99;
    19	2	1656.91	1178.06	0	0	1	1	0	400	1	1.01	0.99;
    20	2	821.68	556.67	0	-200	1	1	0	400	1	1.01	0.99;
    21	2	580.54	592.57	0	1125	1	1	0	400	1	1.01	0.99;
    22	2	1656.91	1185.3	0	1600	1	1	0	400	1	1.01	0.99;
    23	2	4070.00	1310.19	0	-663	1	1	0	400	1	1.01	0.99;
    24	2	1170.29	721.62	0	0	1	1	0	400	1	1.01	0.99;
    25	2	12359.8	1924.56	0	-1425	1	1	0	400	1	1.01	0.99;
    26	2	1173.03	860.76	0	0	1	1	0	400	1	1.01	0.99;	      %IC  NETHERLANDS ON***
    27	2	374.4	200.39	0	700	1	1	0	400	1	1.01	0.99;	      %IC FRANCE IFA1 ON***
    28	2	2262.50	634.10	0	-50	1	1	0	400	1	1.01	0.99;
    29	2	2209.78	161.61	0	475	1	1	0	400	1	1.01	0.99;
    % GB-GB Interconectors
    30	2	0	0	0	0	1	1	0	551	1	1.01	0.99;	% Catithness Moray 1
    31	2	0	0	0	0	1	1	0	551	1	1.01	0.99;	% Catithness Moray 2
    32	2	0	0	0	0	1	1	0	551	1	1.01	0.99;	% xxx NorthConnect Norway      xxxx 
    33	2	0	0	0	0	1	1	0	551	1	1.01	0.99;	% Eastern Link 1 Scotland
    34	2	0	0	0	0	1	1	0	551	1	1.01	0.99;	% Eastern Link 2 England
    % International Interconectors
    35	2	0	0	0	0	1	1	0	551	1	1.01	0.99;	% NeuConnect
    36	2	0	0	0	0	1	1	0	551	1	1.01	0.99;	% NSL
    37	2	0	0	0	0	1	1	0	551	1	1.01	0.99;	% Viking
    38	2	0	0	0	0	1	1	0	551	1	1.01	0.99;	% NEMO      %IC  BELGIUM ON***
    39	2	0	0	0	0	1	1	0	551	1	1.01	0.99;	% ElecLink
    40	2	0	0	0	0	1	1	0	551	1	1.01	0.99;	% GridLink
    41	2	0	0	0	0	1	1	0	551	1	1.01	0.99;	% IFA2
    42	2	0	0	0	0	1	1	0	551	1	1.01	0.99;	% AQUIND
    43	2	0	0	0	0	1	1	0	551	1	1.01	0.99;	% FABLink
    44	2	0	0	0	0	1	1	0	551	1	1.01	0.99;	% GreenLink
    45	2	0	0	0	0	1	1	0	551	1	1.01	0.99;	% EWIC            %IC    ireland ON***
    ];
%% Generator Data

%	bus	Pg	Qg	Qmax	Qmin	Vg	mBase	status	Pmax	Pmin	Pc1	Pc2	Qc1min	Qc1max	Qc2min	Qc2max	ramp_agc	ramp_10	ramp_30	ramp_q	apf
mpc.gen = [
    1	0	0	201	-201	1	100	1	416	0	0	0	0	0	0	0	0	0	0	0	0 ;
    1	0	0	0	0	1	100	1	4673	0	0	0	0	0	0	0	0	0	0	0	0;
    1	0	0	150	-150	1	100	1	0	0	0	0	0	0	0	0	0	0	0	0	0; %SVC
    2	0	0	170	-170	1	100	1	270	0	0	0	0	0	0	0	0	0	0	0	0;
    2	0	0	0	0	1	100	1	1404	0	0	0	0	0	0	0	0	0	0	0	0;
    32	0	0	460	-460	1	100	1	1400	-1400	0	0	0	0	0	0	0	0	0	0	0;   %IC  NorthConnect
    3	0	0	94	-94	1	100	1	194	0	0	0	0	0	0	0	0	0	0	0	0;
    3	0	0	0	0	1	100	1	3665	0	0	0	0	0	0	0	0	0	0	0	0;
    5	0	0	349	-349	1	100	0	563	0	0	0	0	0	0	0	0	0	0	0	0;    %Nuc OFF
    5	0	0	0	0	1	100	1	606	0	0	0	0	0	0	0	0	0	0	0	0;
    6	0	0	0	0	1	100	1	3937	0	0	0	0	0	0	0	0	0	0	0	0;
    6	0	0	0	0	1	100	1	250	-500	0	0	0	0	0	0	0	0	0	0	0; %IC  ireland ON***
    7	0	0	88	-88	1	100	1	139	0	0	0	0	0	0	0	0	0	0	0	0;
    7	0	0	742	-742	1	100	1	1200	0	0	0	0	0	0	0	0	0	0	0	0;
    7	0	0	0	0	1	100	1	1131	0	0	0	0	0	0	0	0	0	0	0	0;
    8	0	0	0	0	1	100	1	254	0	0	0	0	0	0	0	0	0	0	0	0;
    9	0	0	0	0	1	100	1	747	0	0	0	0	0	0	0	0	0	0	0	0;
    10	0	0	180	-180	1	100	1	287	0	0	0	0	0	0	0	0	0	0	0	0;
    10	0	0	445	-445	1	100	1	719	0	0	0	0	0	0	0	0	0	0	0	0;
    10	0	0	0	0	1	100	1	4000	0	0	0	0	0	0	0	0	0	0	0	0;
    35	0	0	460	-460	1	100	1	1400	-1400	0	0	0	0	0	0	0	0	0	0	0; % NeuConnect
    36	0	0	460	-460	1	100	1	1400	-1400	0	0	0	0	0	0	0	0	0	0	0;  %NSL
    11	0	0	66	-66	1	100	1	104	0	0	0	0	0	0	0	0	0	0	0	0;
    11	0	0	1141	-1141	1	100	1	1840	0	0	0	0	0	0	0	0	0	0	0	0;
    11	0	0	0	0	1	100	1	1646	0	0	0	0	0	0	0	0	0	0	0	0;
    12	0	0	587	-587	1	100	1	930	0	0	0	0	0	0	0	0	0	0	0	0;
    12	0	0	205	-205	1	100	1	423	0	0	0	0	0	0	0	0	0	0	0	0;
    12	0	0	1032	-1032	1	100	0	1666	0	0	0	0	0	0	0	0	0	0	0	0;  %Nuc OFF
    12	0	0	0	0	1	100	1	1574	0	0	0	0	0	0	0	0	0	0	0	0;
    45	0	0	164	-164	1	100	1	500	-500	0	0	0	0	0	0	0	0	0	0	0;   %IC   % EWIC IRELAND ON***
    13	0	0	1651	-1651	1	100	1	2618	0	0	0	0	0	0	0	0	0	0	0	0;
    13	0	0	0	0	1	100	1	254	0	0	0	0	0	0	0	0	0	0	0	0;
    14	0	0	544	-544	1	100	1	863	0	0	0	0	0	0	0	0	0	0	0	0;
    15	0	0	1449	-1449	1	100	1	2296	0	0	0	0	0	0	0	0	0	0	0	0;
    15	0	0	3818	-3818	1	100	1	5093	0	0	0	0	0	0	0	0	0	0	0	0;
    16	0	0	3499	-3499	1	100	1	7097	0	0	0	0	0	0	0	0	0	0	0	0;
    16	0	0	0	0	1	100	1	4657	0	0	0	0	0	0	0	0	0	0	0	0;
    17	0	0	3846	-3846	1	100	1	5127	0	0	0	0	0	0	0	0	0	0	0	0;
    17	0	0	150	-75	1	100	1	0	0	0	0	0	0	0	0	0	0	0	0	0;
    18	0	0	1032	-1032	1	100	0	1666	0	0	0	0	0	0	0	0	0	0	0	0;
    18	0	0	300	-150	1	100	1	0	0	0	0	0	0	0	0	0	0	0	0	0;
    19	0	0	1693	-1693	1	100	1	2684	0	0	0	0	0	0	0	0	0	0	0	0;
    19	0	0	0	0	1	100	1	1721	0	0	0	0	0	0	0	0	0	0	0	0;
    37	0	0	460	-460	1	100	1	1400	-1400	0	0	0	0	0	0	0	0	0	0	0;  % Viking
    20	0	0	172	-172	1	100	1	273	0	0	0	0	0	0	0	0	0	0	0	0;
    20	0	0	595	-595	1	100	1	960	0	0	0	0	0	0	0	0	0	0	0	0;
    20	0	0	418	-418	1	100	1	676	0	0	0	0	0	0	0	0	0	0	0	0;
    20	0	0	0	0	1	100	1	8850	0	0	0	0	0	0	0	0	0	0	0	0;
    21	0	0	300	-150	1	100	1	0	0	0	0	0	0	0	0	0	0	0	0	0;
    22	0	0	315	-315	1	100	1	499	0	0	0	0	0	0	0	0	0	0	0	0;
    22	0	0	150	-75	1	100	1	0	0	0	0	0	0	0	0	0	0	0	0	0;
    23	0	0	2195	-2195	1	100	1	4453	0	0	0	0	0	0	0	0	0	0	0	0;
    23	0	0	31	-31	1	100	1	65	0	0	0	0	0	0	0	0	0	0	0	0;
    23	0	0	418	-418	1	100	1	676	0	0	0	0	0	0	0	0	0	0	0	0;
    23	0	0	0	0	1	100	1	228	0	0	0	0	0	0	0	0	0	0	0	0;
    44	0	0	164	-164	1	100	1	500	-500	0	0	0	0	0	0	0	0	0	0	0;   % GreenLink
    24	0	0	660	-660	1	100	1	1045	0	0	0	0	0	0	0	0	0	0	0	0;
    25	0	0	1365	-1365	1	100	1	2163	0	0	0	0	0	0	0	0	0	0	0	0;
    25	0	0	202	-202	1	100	1	327	0	0	0	0	0	0	0	0	0	0	0	0;
    26	0	0	1613	-1613	1	100	1	2555	0	0	0	0	0	0	0	0	0	0	0	0;
    26	0	0	616	-616	1	100	0	994	0	0	0	0	0	0	0	0	0	0	0	0;
    26	0	0	0	0	1	100	1	1000	-1000	0	0	0	0	0	0	0	0	0	0	0; %IC  NETHERLANDS ON***
    38	0	0	329	-329	1	100	1	1000	-1000	0	0	0	0	0	0	0	0	0	0	0; %IC    % NEMO belgium ON***
    27	0	0	398	-398	1	100	0	643	0	0	0	0	0	0	0	0	0	0	0	0;
    27	0	0	0	0	1	100	1	930	0	0	0	0	0	0	0	0	0	0	0	0;
    27	0	0	0	0	1	100	1	2000	-2000	0	0	0	0	0	0	0	0	0	0	0; %IC FRANCE IFA1 ON***
    39	0	0	329	-329	1	100	1	1000	-1000	0	0	0	0	0	0	0	0	0	0	0;   % ElecLink
    40	0	0	460	-460	1	100	1	1400	-1400	0	0	0	0	0	0	0	0	0	0	0;   % GridLink
    27	0	0	675	-675	1	100	1	0	0	0	0	0	0	0	0	0	0	0	0	0;
    28	0	0	629	-629	1	100	1	996	0	0	0	0	0	0	0	0	0	0	0	0;
    28	0	0	141	-141	1	100	1	228	0	0	0	0	0	0	0	0	0	0	0	0;
    28	0	0	0	0	1	100	1	400	0	0	0	0	0	0	0	0	0	0	0	0;
    42	0	0	657	-657	1	100	1	2000	-2000	0	0	0	0	0	0	0	0	0	0	0;    % AQUIND
    41	0	0	329	-329	1	100	1	1000	-1000	0	0	0	0	0	0	0	0	0	0	0;   % IFA2
    28	0	0	375	-300	1	100	1	0	0	0	0	0	0	0	0	0	0	0	0	0;
    29	0	0	385	-385	1	100	1	610	0	0	0	0	0	0	0	0	0	0	0	0;
    29	0	0	538	-538	1	100	1	868	0	0	0	0	0	0	0	0	0	0	0	0;
    29	0	0	198	-198	1	100	1	316	0	0	0	0	0	0	0	0	0	0	0	0;
    43	0	0	460	-460	1	100	1	1400	-1400	0	0	0	0	0	0	0	0	0	0	0;    % FABLink
    29	0	0	825	-525	1	100	1	0	0	0	0	0	0	0	0	0	0	0	0	0;
    % GB-GB Interconectors
    30	0	0	394	-394	1	100	1	1200	-1200	0	0	0	0    0	0	0	0	0	0	0;  % Catithness Moray 1
    31	0	0	394	-394	1	100	1	1200	-1200	0	0	0	0	0	0	0	0	0	0	0;  % Catithness Moray 2
    33	0	0	657	-657	1	100	1	2000	-2000	0	0	0	0	0 0 0	0	0	0	0;   % Eastern Link 1 (Scotland)
    34	0	0	657	-657	1	100	1	2000	-2000	0	0	0	0 0  0	0	0	0	0	0;   % Eastern Link 2( England)
    5	0	0	0	0	1	100	1	2200	-2200	0	0	0	0	0	0	0	0	0	0	0;                % Western HVDC Link 1
    12	0	0	0	0	1	100	1	2200	-2200	0	0	0	0	0	0	0	0	0	0	0;               % Western HVDC Link 2
    ];
%% Transmission Lines Data

%	fbus	tbus	r	x	b	rateA	rateB	rateC	ratio	angle	status	angmin	angmax
mpc.branch = [
    1	2	0.00262	0.01904	0.12613	935	935	935	0	0	1	-360	360.00;
    1	2	0.00262	0.01904	0.12613	935	935	935	0	0	1	-360	360.00;
    1	2	0.00187	0.01359	0.09003	935	935	935	0	0	1	-360	360.00;
    1	2	0.00187	0.01359	0.09003	935	935	935	0	0	1	-360	360.00;
    1	3	0.00211	0.03128	0.22063	1910	1910	1910	1	2	1	-360	360.00;
    1	3	0.00069	0.01018	0.32161	2780	2780	2780	1	2	1	-360	360.00;
    2	3	0.0061	0.0536	0.22142	695	695	695	0	0	1	-360	360.00;
    2	3	0.0061	0.0536	0.22142	695	695	695	0	0	1	-360	360.00;
    2	4	0.00433	0.03735	0.23	1090	1090	1090	0	0	1	-360	360.00;
    2	4	0.0019	0.0167	0.102	1090	1090	1090	0	0	1	-360	360.00;
    2	4	0.00685	0.05891	0.35895	1090	1090	1090	0	0	1	-360	360.00;
    2	4	0.0019	0.0167	0.102	1090	1090	1090	0	0	1	-360	360.00;
    3	4	0.00094	0.01396	0.44078	2780	2780	2780	0	0	1	-360	360.00;
    3	4	0.0033	0.0351	0.2072	1377	1377	1377	0	0	1	-360	360.00;
    3	4	0.0023	0.0246	0.1456	1380	1380	1380	0	0	1	-360	360.00;
    4	5	0.0005	0.0058	0.1709	1390	1390	1390	0	0	1	-360	360.00;
    4	5	0.0011	0.0113	0.0667	957	957	957	0	0	1	-360	360.00;
    4	6	0.0014	0.0192	0.1758	1500	1500	1500	0	0	1	-360	360.00;
    4	6	0.0012	0.0164	0.1496	1500	1500	1500	0	0	1	-360	360.00;
    4	7	0.0018	0.0187	0.1104	1380	1380	1380	0	0	1	-360	360.00;
    4	7	0.0024	0.0248	0.1464	1380	1380	1380	0	0	1	-360	360.00;
    5	6	0.0009	0.009	0.0529	1090	1090	1090	0	0	1	-360	360.00;
    5	6	0.0012	0.0131	0.0774	1110	1110	1110	0	0	1	-360	360.00;
    5	6	0.0008	0.0115	0.3551	2030	2030	2030	0	0	1	-360	360.00;
    5	6	0.0008	0.0115	0.3551	6928	6928	6928	0	0	1	-360	360.00;
    6	7	0.0003	0.0024	0.0643	2000	2000	2000	0	0	1	-360	360.00;
    6	7	0.0016	0.0158	0.4197	1390	1390	1390	0	0	1	-360	360.00;
    6	9	0.0008	0.0083	0.2622	2210	2210	2210	0	0	1	-360	360.00;
    6	9	0.0011	0.0125	0.3924	2210	2210	2210	0	0	1	-360	360.00;
    7	8	0.0004	0.0069	0.1995	2520	2520	2520	0	0	1	-360	360.00;
    7	8	0.0004	0.0069	0.1995	2520	2520	2520	0	0	1	-360	360.00;
    7	8	0.0016	0.0131	0.364	1090	1090	1090	0	0	1	-360	360.00;
    7	8	0.0016	0.0131	0.364	1090	1090	1090	0	0	1	-360	360.00;
    8	10	0.0001	0.0012	0.0511	2770	2770	2770	0	0	1	-360	360.00;
    8	10	0.0001	0.0012	0.0511	2770	2770	2770	0	0	1	-360	360.00;
    9	10	0.0033	0.0236	0.1521	855	855	855	0	0	1	-360	360.00;
    9	10	0.0049	0.0355	0.2372	775	775	775	0	0	1	-360	360.00;
    9	11	0.0013	0.0156	0.4883	3100	3100	3100	0	0	1	-360	360.00;
    9	11	0.0013	0.0156	0.4883	3100	3100	3100	0	0	1	-360	360.00;
    10	15	0.0011	0.0159	0.5105	2010	2010	2010	0	0	1	-360	360.00;
    10	15	0.0011	0.0159	0.5105	2010	2010	2010	0	0	1	-360	360.00;
    10	15	0.0011	0.0165	2.65	2420	2420	2420	0	0	1	-360	360.00;
    10	15	0.0011	0.0165	2.65	2420	2420	2420	0	0	1	-360	360.00;
    11	12	0.0001	0.002	0.0776	3580	3580	3580	0	0	1	-360	360.00;
    11	12	0.0001	0.002	0.0776	3580	3580	3580	0	0	1	-360	360.00;
    11	13	0.001	0.0112	0.3344	2170	2170	2170	0	0	1	-360	360.00;
    11	13	0.0006	0.0073	0.2421	2170	2170	2170	0	0	1	-360	360.00;
    11	15	0.0011	0.0163	0.5474	2520	2520	2520	0	0	1	-360	360.00;
    11	15	0.0008	0.0113	0.3592	1000	1000	1000	0	0	1	-360	360.00;
    12	13	0.0009	0.0116	0.362	2890	2890	2890	0	0	1	-360	360.00;
    12	13	0.0009	0.0116	0.362	2890	2890	2890	0	0	1	-360	360.00;
    12	18	0.0004	0.0052	0.1639	3100	3100	3100	1	2	1	-360	360.00;
    12	18	0.0002	0.0023	0.073	3100	3100	3100	1	2	1	-360	360.00;
    13	14	0.0004	0.0056	0.9524	1650	1650	1650	0	0	1	-360	360.00;
    13	14	0.0008	0.013	1.2234	1330	1330	1330	0	0	1	-360	360.00;
    13	15	0.0014	0.0162	0.6446	1100	1100	1100	0	0	1	-360	360.00;
    13	15	0.0016	0.0166	0.1087	955	955	955	0	0	1	-360	360.00;
    13	18	0.0008	0.0103	0.7688	2510	2510	2510	0	0	1	-360	360.00;
    13	18	0.0005	0.0061	0.1898	3100	3100	3100	0	0	1	-360	360.00;
    14	15	0.0003	0.004	0.2364	2980	2980	2980	0	0	1	-360	360.00;
    14	15	0.0003	0.005	0.2193	2220	2220	2220	0	0	1	-360	360.00;
    14	15	0.0005	0.0084	0.317	2780	2780	2780	0	0	1	-360	360.00;
    14	16	0.0002	0.0022	0.2464	3070	3070	3070	0	0	1	-360	360.00;
    14	16	0.0049	0.0196	0.128	625	625	625	0	0	1	-360	360.00;
    14	16	0.0012	0.018	0.1224	1380	1380	1380	0	0	1	-360	360.00;
    14	16	0.0012	0.0181	0.1228	1380	1380	1380	0	0	1	-360	360.00;
    15	16	0.0003	0.0051	0.2004	3070	3070	3070	0	0	1	-360	360.00;
    15	16	0.0003	0.0051	0.1994	3070	3070	3070	0	0	1	-360	360.00;
    16	17	0.0005	0.0053	0.214	2150	2150	2150	0	0	1	-360	360.00;
    16	17	0.0008	0.0087	0.2528	2150	2150	2150	0	0	1	-360	360.00;
    16	19	0.0006	0.0113	0.4406	3330	3330	3330	0	0	1	-360	360.00;
    16	19	0.0006	0.0113	0.4406	3330	3330	3330	0	0	1	-360	360.00;
    16	21	0.0008	0.0134	0.5069	2780	2780	2780	0	0	1	-360	360.00;
    16	21	0.0008	0.0134	0.5064	2780	2780	2780	0	0	1	-360	360.00;
    16	22	0.0023	0.0255	0.7572	2010	2010	2010	0	0	1	-360	360.00;
    16	22	0.0019	0.0203	0.5902	2510	2510	2510	0	0	1	-360	360.00;
    17	18	0.0006	0.0065	0.1913	2010	2010	2010	0	0	1	-360	360.00;
    17	18	0.0003	0.0034	0.0981	2010	2010	2010	0	0	1	-360	360.00;
    17	22	0.0007	0.0081	0.2426	2010	2010	2010	0	0	1	-360	360.00;
    17	22	0.0007	0.0081	0.2426	2010	2010	2010	0	0	1	-360	360.00;
    18	23	0.0015	0.0157	0.4545	1970	1970	1970	0	0	1	-360	360.00;
    18	23	0.0012	0.0135	0.394	1970	1970	1970	0	0	1	-360	360.00;
    19	20	0.0004	0.0071	0.2797	3820	3820	3820	0	0	1	-360	360.00;
    19	20	0.0004	0.0071	0.2797	3820	3820	3820	0	0	1	-360	360.00;
    19	21	0.0005	0.0088	0.3441	3100	3100	3100	0	0	1	-360	360.00;
    19	21	0.0005	0.0088	0.344	3100	3100	3100	0	0	1	-360	360.00;
    20	21	0.0005	0.0084	0.3182	2780	2780	2780	0	0	1	-360	360.00;
    20	21	0.0008	0.0121	0.4568	3100	3100	3100	0	0	1	-360	360.00;
    20	26	0.0003	0.0057	0.2218	3820	3820	3820	0	0	1	-360	360.00;
    20	26	0.0003	0.0057	0.222	3820	3820	3820	0	0	1	-360	360.00;
    21	22	0.0002	0.0032	0.1199	3050	3050	3050	0	0	1	-360	360.00;
    21	22	0.0002	0.0031	0.1186	3180	3180	3180	0	0	1	-360	360.00;
    21	25	0.0004	0.0047	0.1306	3100	3100	3100	0	0	1	-360	360.00;
    21	25	0.0004	0.0047	0.133	3100	3100	3100	0	0	1	-360	360.00;
    22	23	0.0014	0.0185	0.9807	1180	1180	1180	0	0	1	-360	360.00;
    22	23	0.0011	0.0164	0.9208	1180	1180	1180	0	0	1	-360	360.00;
    22	25	0.0007	0.0069	0.1994	1000	1000	1000	0	0	1	-360	360.00;
    22	25	0.0008	0.007	0.2001	1590	1590	1590	0	0	1	-360	360.00;
    22	25	0.0007	0.007	0.2038	1390	1390	1390	0	0	1	-360	360.00;
    22	25	0.0007	0.007	0.2038	2010	2010	2010	0	0	1	-360	360.00;
    23	24	0.0018	0.0163	0.4686	1390	1390	1390	0	0	1	-360	360.00;
    23	24	0.0018	0.0163	0.4686	1390	1390	1390	0	0	1	-360	360.00;
    23	29	0.0012	0.0151	0.4698	3100	3100	3100	0	0	1	-360	360.00;
    23	29	0.0012	0.0151	0.4698	3100	3100	3100	0	0	1	-360	360.00;
    24	25	0.0008	0.0095	0.2969	2200	2200	2200	0	0	1	-360	360.00;
    24	25	0.0008	0.0095	0.2969	2200	2200	2200	0	0	1	-360	360.00;
    24	28	0.0002	0.0031	0.1157	2780	2780	2780	0	0	1	-360	360.00;
    24	28	0.0002	0.0031	0.1157	2780	2780	2780	0	0	1	-360	360.00;
    25	26	0.0001	0.0015	0.0435	2000	2000	2000	0	0	1	-360	360.00;
    25	26	0.0001	0.0015	0.0435	2000	2000	2000	0	0	1	-360	360.00;
    25	26	0.0002	0.0026	0.1303	2830	2830	2830	0	0	1	-360	360.00;
    25	26	0.0002	0.0026	0.1303	2890	2890	2890	0	0	1	-360	360.00;
    25	26	0.0007	0.0074	0.2268	1930	1930	1930	0	0	1	-360	360.00;
    25	26	0.0007	0.0073	0.2237	1930	1930	1930	0	0	1	-360	360.00;
    26	27	0.0004	0.0054	0.1692	3100	3100	3100	0	0	1	-360	360.00;
    26	27	0.0002	0.0028	0.0882	3100	3100	3100	0	0	1	-360	360.00;
    27	28	0.0007	0.0113	0.427	2780	2780	2780	0	0	1	-360	360.00;
    27	28	0.0007	0.0113	0.427	2770	2770	2770	0	0	1	-360	360.00;
    28	29	0.0004	0.0066	0.2757	2780	2780	2780	0	0	1	-360	360.00;
    28	29	0.0007	0.01	0.4303	2780	2780	2780	0	0	1	-360	360.00;
    % GB-GB Interconectors
    1	30	0.0002	0.002	0	6000	6000	6000	0	0	1	-360	360.00;  % Catithness Moray 1
    2	31	0.0002	0.002	0	6000	6000	6000	0	0	1	-360	360.00;   % Catithness Moray 2
    2	32	0.0002	0.002	0	6000	6000	6000	0	0	1	-360	360.00;   % NorthConnect                    %ScotlandNorway HVDC interconnector
    2	33	0.0002	0.002	0	6000	6000	6000	0	0	1	-360	360.00;   % Eastern Link 1 Scotland          % Scotland-England HVDC interconnector
    10	34	0.0002	0.002	0	6000	6000	6000	0	0	1	-360	360.00;  % Eastern Link 2 England
    % International Interconectors
    10	35	0.0002	0.002	0	6000	6000	6000	0	0	1	-360	360.00;   % NeuConnect
    10	36	0.0002	0.002	0	6000	6000	6000	0	0	1	-360	360.00;    %NSL  Norway
    19	37	0.0002	0.002	0	6000	6000	6000	0	0	1	-360	360.00;    % Viking
    26	38	0.0002	0.002	0	6000	6000	6000	0	0	1	-360	360.00;    %IC % NEMO    BELGIUM ON
    27	39	0.0002	0.002	0	6000	6000	6000	0	0	1	-360	360.00;    % ElecLink
    27	40	0.0002	0.002	0	6000	6000	6000	0	0	1	-360	360.00;    % GridLink
    28	41	0.0002	0.002	0	6000	6000	6000	0	0	1	-360	360.00;    % IFA2
    28	42	0.0002	0.002	0	6000	6000	6000	0	0	1	-360	360.00;    % AQUIND
    29	43	0.0002	0.002	0	6000	6000	6000	0	0	1	-360	360.00;    % FABLink
    23	44	0.0002	0.002	0	6000	6000	6000	0	0	1	-360	360.00;    % GreenLink
    12	45	0.0002	0.002	0	6000	6000	6000	0	0	1	-360	360.00;    % EWIC        IRELAND ON
    ];

mpc.areas =[
    1 1;
    ];

%% Generator Cost Data

%	1	startup	shutdown	n	x1	y1	...	xn	yn
%	2	startup	shutdown	n	c(n-1)	...	c0
mpc.gencost = [																					
    2	0	0	3	0.0325	2	0
    2	0	0	3	0.00834	0.5	0
    2	0	0	3	0.001	0	0
    2	0	0	3	0.04	3	0
    2	0	0	3	0.00834	0.5	0
    2	0	0	3	0.0175	1.75	0
    2	0	0	3	0.0325	2	0
    2	0	0	3	0.00834	0.5	0
    2	0	0	3	0.02	2	0
    2	0	0	3	0.00834	0.5	0
    2	0	0	3	0.00834	0.5	0
    2	0	0	3	0.0175	1.75	0
    2	0	0	3	0.04	3	0
    2	0	0	3	0.02	2	0
    2	0	0	3	0.00834	0.5	0
    2	0	0	3	0.00834	0.5	0
    2	0	0	3	0.00834	0.5	0
    2	0	0	3	0.04	3	0
    2	0	0	3	0.02	2	0
    2	0	0	3	0.00834	0.5	0
    2	0	0	3	0.0175	1.75	0
    2	0	0	3	0.0175	1.75	0
    2	0	0	3	0.04	3	0
    2	0	0	3	0.02	2	0
    2	0	0	3	0.00834	0.5	0
    2	0	0	3	0.04	3	0
    2	0	0	3	0.0325	2	0
    2	0	0	3	0.02	2	0
    2	0	0	3	0.00834	0.5	0
    2	0	0	3	0.0175	1.75	0
    2	0	0	3	0.04	3	0
    2	0	0	3	0.00834	0.5	0
    2	0	0	3	0.04	3	0
    2	0	0	3	0.04	3	0
    2	0	0	3	0.0525	3.25	0
    2	0	0	3	0.04	3	0
    2	0	0	3	0.00834	0.5	0
    2	0	0	3	0.0525	3.25	0
    2	0	0	3	0.001	0	0
    2	0	0	3	0.02	2	0
    2	0	0	3	0.001	0	0
    2	0	0	3	0.04	3	0
    2	0	0	3	0.00834	0.5	0
    2	0	0	3	0.0175	1.75	0
    2	0	0	3	0.04	3	0
    2	0	0	3	0.02	2	0
    2	0	0	3	0.065	4	0
    2	0	0	3	0.00834	0.5	0
    2	0	0	3	0.001	0	0
    2	0	0	3	0.04	3	0
    2	0	0	3	0.001	0	0
    2	0	0	3	0.04	3	0
    2	0	0	3	0.0325	2	0
    2	0	0	3	0.065	4	0
    2	0	0	3	0.00834	0.5	0
    2	0	0	3	0.0175	1.75	0
    2	0	0	3	0.04	3	0
    2	0	0	3	0.04	3	0
    2	0	0	3	0.065	4	0
    2	0	0	3	0.04	3	0
    2	0	0	3	0.02	2	0
    2	0	0	3	0.0175	1.75	0
    2	0	0	3	0.0175	1.75	0
    2	0	0	3	0.02	2	0
    2	0	0	3	0.00834	0.5	0
    2	0	0	3	0.0175	1.75	0
    2	0	0	3	0.0175	1.75	0
    2	0	0	3	0.0175	1.75	0
    2	0	0	3	0.001	0	0
    2	0	0	3	0.04	3	0
    2	0	0	3	0.065	4	0
    2	0	0	3	0.00834	0.5	0
    2	0	0	3	0.0175	1.75	0
    2	0	0	3	0.0175	1.75	0
    2	0	0	3	0.001	0	0
    2	0	0	3	0.04	3	0
    2	0	0	3	0.02	2	0
    2	0	0	3	0.065	4	0
    2	0	0	3	0.0175	1.75	0
    2	0	0	3	0.001	0	0
    2	0	0	3	0.0175	1.75	0
    2	0	0	3	0.0175	1.75	0
    2	0	0	3	0.0175	1.75	0
    2	0	0	3	0.0175	1.75	0
    2	0	0	3	0.0175	1.75	0
    2	0	0	3	0.0175	1.75	0						
    2	0	0	3	0.0175	0	0
    2	0	0	3	0.0175	0	0
    2	0	0	3	0.000834	0	0
    2	0	0	3	0.0175	0	0
    2	0	0	3	0.0175	0	0
    2	0	0	3	0.0175	0	0
    2	0	0	3	0.0175	0	0
    2	0	0	3	0.0175	0	0
    2	0	0	3	0.0175	0	0
    2	0	0	3	0.0175	0	0
    2	0	0	3	0.0175	0	0
    2	0	0	3	0.0175	0	0
    2	0	0	3	0.0175	0	0
    2	0	0	3	0.0175	0	0
    2	0	0	3	0.0175	0	0
    2	0	0	3	0.0175	0	0
    2	0	0	3	0.0175	0	0
    2	0	0	3	0.0175	0	0
    2	0	0	3	0.0175	0	0
    2	0	0	3	0.0175	0	0
    2	0	0	3	0.0175	0	0
    2	0	0	3	0.0175	0	0
    2	0	0	3	0.0175	0	0
    2	0	0	3	0.0175	0	0
    2	0	0	3	0.0175	0	0
    2	0	0	3	0.0175	0	0
    2	0	0	3	0.0175	0	0
    2	0	0	3	0.0175	0	0
    2	0	0	3	0.0175	0	0
    2	0	0	3	0.0175	0	0
    2	0	0	3	0.0175	0	0
    2	0	0	3	0.0175	0	0
    2	0	0	3	0.0175	0	0
    2	0	0	3	0.0175	0	0
    2	0	0	3	0.0175	0	0
    2	0	0	3	0.0175	0	0
    2	0	0	3	0.0175	0	0
    2	0	0	3	0.0175	0	0
    2	0	0	3	0.000834	0	0
    2	0	0	3	0.0175	0	0
    2	0	0	3	0.000834	0	0
    2	0	0	3	0.0175	0	0
    2	0	0	3	0.0175	0	0
    2	0	0	3	0.0175	0	0
    2	0	0	3	0.0175	0	0
    2	0	0	3	0.0175	0	0
    2	0	0	3	0.0175	0	0
    2	0	0	3	0.0175	0	0
    2	0	0	3	0.000834	0	0
    2	0	0	3	0.0175	0	0
    2	0	0	3	0.000834	0	0
    2	0	0	3	0.0175	0	0
    2	0	0	3	0.0175	0	0
    2	0	0	3	0.0175	0	0
    2	0	0	3	0.0175	0	0
    2	0	0	3	0.0175	0	0
    2	0	0	3	0.0175	0	0
    2	0	0	3	0.0175	0	0
    2	0	0	3	0.0175	0	0
    2	0	0	3	0.0175	0	0
    2	0	0	3	0.0175	0	0
    2	0	0	3	0.0175	0	0
    2	0	0	3	0.0175	0	0
    2	0	0	3	0.0175	0	0
    2	0	0	3	0.0175	0	0
    2	0	0	3	0.0175	0	0
    2	0	0	3	0.0175	0	0
    2	0	0	3	0.0175	0	0
    2	0	0	3	0.000834	0	0
    2	0	0	3	0.0175	0	0
    2	0	0	3	0.0175	0	0
    2	0	0	3	0.0175	0	0
    2	0	0	3	0.0175	0	0
    2	0	0	3	0.0175	0	0
    2	0	0	3	0.000834	0	0
    2	0	0	3	0.0175	0	0
    2	0	0	3	0.0175	0	0
    2	0	0	3	0.0175	0	0
    2	0	0	3	0.0175	0	0
    2	0	0	3	0.000834	0	0
    2	0	0	3	0.0175	0	0
    2	0	0	3	0.0175	0	0
    2	0	0	3	0.0175	0	0
    2	0	0	3	0.0175	0	0
    2	0	0	3	0.0175	0	0
    2	0	0	3	0.0175	0	0
];

%% Equality Constraints for GB-GB Interconnectors
nb = length(mpc.bus); % number of buses
ng = length(mpc.gen); % number of genrators
mpc.A = sparse(zeros(3,2*nb + 2*ng+30));    
mpc.l = zeros(3,1);
mpc.u = zeros(3,1);

% Pg(81) + Pg(82) = 0 <=> Pg(81) = - Pg(82)
mpc.A(1,2*nb + 81) = 1; % 1 denotes 1st equation, 2*nb + 81 is the index of variable Pg(81). Generally, the optimization vector is: [Va; Vm; Pg; Qg]. The corresponding vector lengths are: nb, nb, ng, ng.
mpc.A(1,2*nb + 82) = 1;

% Pg(83) + Pg(84) = 0 <=> Pg(83) = - Pg(84)
mpc.A(2,2*nb + 83) = 1; % 2 denotes 2nd equation, 2*nb + 83 is the index of variable Pg(83)
mpc.A(2,2*nb + 84) = 1;

% Pg(85) + Pg(86) = 0 <=> Pg(85) = - Pg(86)
mpc.A(3,2*nb + 85) = 1;
mpc.A(3,2*nb + 86) = 1;
